*SPEF "ieee 1481-1999"
*DESIGN "pm32"
*DATE "00:16:11 Thursday May 08, 2025"
*VENDOR "The OpenROAD Project"
*PROGRAM "OpenROAD"
*VERSION "edf00dff99f6c40d67a30c0e22a8191c5d2ed9d6"
*DESIGN_FLOW "NAME_SCOPE LOCAL" "PIN_CAP NONE"
*DIVIDER /
*DELIMITER :
*BUS_DELIMITER []
*T_UNIT 1 NS
*C_UNIT 1 PF
*R_UNIT 1 OHM
*L_UNIT 1 HENRY

*NAME_MAP
*3 clk
*4 done
*5 mc[0]
*6 mc[10]
*7 mc[11]
*8 mc[12]
*9 mc[13]
*10 mc[14]
*11 mc[15]
*12 mc[16]
*13 mc[17]
*14 mc[18]
*15 mc[19]
*16 mc[1]
*17 mc[20]
*18 mc[21]
*19 mc[22]
*20 mc[23]
*21 mc[24]
*22 mc[25]
*23 mc[26]
*24 mc[27]
*25 mc[28]
*26 mc[29]
*27 mc[2]
*28 mc[30]
*29 mc[31]
*30 mc[3]
*31 mc[4]
*32 mc[5]
*33 mc[6]
*34 mc[7]
*35 mc[8]
*36 mc[9]
*37 mp[0]
*38 mp[10]
*39 mp[11]
*40 mp[12]
*41 mp[13]
*42 mp[14]
*43 mp[15]
*44 mp[16]
*45 mp[17]
*46 mp[18]
*47 mp[19]
*48 mp[1]
*49 mp[20]
*50 mp[21]
*51 mp[22]
*52 mp[23]
*53 mp[24]
*54 mp[25]
*55 mp[26]
*56 mp[27]
*57 mp[28]
*58 mp[29]
*59 mp[2]
*60 mp[30]
*61 mp[31]
*62 mp[3]
*63 mp[4]
*64 mp[5]
*65 mp[6]
*66 mp[7]
*67 mp[8]
*68 mp[9]
*69 p[0]
*70 p[10]
*71 p[11]
*72 p[12]
*73 p[13]
*74 p[14]
*75 p[15]
*76 p[16]
*77 p[17]
*78 p[18]
*79 p[19]
*80 p[1]
*81 p[20]
*82 p[21]
*83 p[22]
*84 p[23]
*85 p[24]
*86 p[25]
*87 p[26]
*88 p[27]
*89 p[28]
*90 p[29]
*91 p[2]
*92 p[30]
*93 p[31]
*94 p[32]
*95 p[33]
*96 p[34]
*97 p[35]
*98 p[36]
*99 p[37]
*100 p[38]
*101 p[39]
*102 p[3]
*103 p[40]
*104 p[41]
*105 p[42]
*106 p[43]
*107 p[44]
*108 p[45]
*109 p[46]
*110 p[47]
*111 p[48]
*112 p[49]
*113 p[4]
*114 p[50]
*115 p[51]
*116 p[52]
*117 p[53]
*118 p[54]
*119 p[55]
*120 p[56]
*121 p[57]
*122 p[58]
*123 p[59]
*124 p[5]
*125 p[60]
*126 p[61]
*127 p[62]
*128 p[63]
*129 p[6]
*130 p[7]
*131 p[8]
*132 p[9]
*133 rst
*134 start
*135 Y\[0\]
*136 Y\[10\]
*137 Y\[11\]
*138 Y\[12\]
*139 Y\[13\]
*140 Y\[14\]
*141 Y\[15\]
*142 Y\[16\]
*143 Y\[17\]
*144 Y\[18\]
*145 Y\[19\]
*146 Y\[1\]
*147 Y\[20\]
*148 Y\[21\]
*149 Y\[22\]
*150 Y\[23\]
*151 Y\[24\]
*152 Y\[25\]
*153 Y\[26\]
*154 Y\[27\]
*155 Y\[28\]
*156 Y\[29\]
*157 Y\[2\]
*158 Y\[30\]
*159 Y\[31\]
*160 Y\[3\]
*161 Y\[4\]
*162 Y\[5\]
*163 Y\[6\]
*164 Y\[7\]
*165 Y\[8\]
*166 Y\[9\]
*167 _0000_
*168 _0001_
*169 _0002_
*170 _0003_
*171 _0004_
*172 _0005_
*173 _0006_
*174 _0007_
*175 _0008_
*176 _0009_
*177 _0010_
*178 _0011_
*179 _0012_
*180 _0013_
*181 _0014_
*182 _0015_
*183 _0016_
*184 _0017_
*185 _0018_
*186 _0019_
*187 _0020_
*188 _0021_
*189 _0022_
*190 _0023_
*191 _0024_
*192 _0025_
*193 _0026_
*194 _0027_
*195 _0028_
*196 _0029_
*197 _0030_
*198 _0031_
*199 _0032_
*200 _0033_
*201 _0034_
*202 _0035_
*203 _0036_
*204 _0037_
*205 _0038_
*206 _0039_
*207 _0040_
*208 _0041_
*209 _0042_
*210 _0043_
*211 _0044_
*212 _0045_
*213 _0046_
*214 _0047_
*215 _0048_
*216 _0049_
*217 _0050_
*218 _0051_
*219 _0052_
*220 _0053_
*221 _0054_
*222 _0055_
*223 _0056_
*224 _0057_
*225 _0058_
*226 _0059_
*227 _0060_
*228 _0061_
*229 _0062_
*230 _0063_
*231 _0064_
*232 _0065_
*233 _0066_
*234 _0067_
*235 _0068_
*236 _0069_
*237 _0070_
*238 _0071_
*239 _0072_
*240 _0073_
*241 _0074_
*242 _0075_
*243 _0076_
*244 _0077_
*245 _0078_
*246 _0079_
*247 _0080_
*248 _0081_
*249 _0082_
*250 _0083_
*251 _0084_
*252 _0085_
*253 _0086_
*254 _0087_
*255 _0088_
*256 _0089_
*257 _0090_
*258 _0091_
*259 _0092_
*260 _0093_
*261 _0094_
*262 _0095_
*263 _0096_
*264 _0097_
*265 _0098_
*266 _0099_
*267 _0100_
*268 _0101_
*269 _0102_
*270 _0103_
*271 _0104_
*272 _0105_
*273 _0106_
*274 _0107_
*275 _0108_
*276 _0109_
*277 _0110_
*278 _0111_
*279 _0112_
*280 _0113_
*281 _0114_
*282 _0115_
*283 _0116_
*284 _0117_
*285 _0118_
*286 _0119_
*287 _0120_
*288 _0121_
*289 _0122_
*290 _0123_
*291 _0124_
*292 _0125_
*293 _0126_
*294 _0127_
*295 _0128_
*296 _0129_
*297 _0130_
*298 _0131_
*299 _0132_
*300 _0133_
*301 _0134_
*302 _0135_
*303 _0136_
*304 _0137_
*305 _0138_
*306 _0139_
*307 _0140_
*308 _0141_
*309 _0142_
*310 _0143_
*311 _0144_
*312 _0145_
*313 _0146_
*314 _0147_
*315 _0148_
*316 _0149_
*317 _0150_
*318 _0151_
*319 _0152_
*320 _0153_
*321 _0154_
*322 _0155_
*323 _0156_
*324 _0157_
*325 _0158_
*326 _0159_
*327 _0160_
*328 _0161_
*329 _0162_
*330 _0163_
*331 _0164_
*332 _0165_
*333 _0166_
*334 _0167_
*335 _0168_
*336 _0169_
*337 _0170_
*338 _0171_
*339 _0172_
*340 _0173_
*341 _0174_
*342 _0175_
*343 _0176_
*344 _0177_
*345 _0178_
*346 _0179_
*347 _0180_
*348 _0181_
*349 _0182_
*350 _0183_
*351 _0184_
*352 _0185_
*353 _0186_
*354 _0187_
*355 _0188_
*356 _0189_
*357 _0190_
*358 _0191_
*359 _0192_
*360 _0193_
*361 _0194_
*362 _0195_
*363 _0196_
*364 _0197_
*365 _0198_
*366 _0199_
*367 _0200_
*368 _0201_
*369 _0202_
*370 _0203_
*371 _0204_
*372 _0205_
*373 _0206_
*374 _0207_
*375 _0208_
*376 _0209_
*377 _0210_
*378 _0211_
*379 _0212_
*380 _0213_
*381 _0214_
*382 _0215_
*383 _0216_
*384 _0217_
*385 _0218_
*386 _0219_
*387 _0220_
*388 _0221_
*389 _0222_
*390 _0223_
*391 _0224_
*392 _0225_
*393 _0226_
*394 _0227_
*395 _0228_
*396 _0229_
*397 _0230_
*398 _0231_
*399 _0232_
*400 _0233_
*401 _0234_
*402 _0235_
*403 _0236_
*404 _0237_
*405 _0238_
*406 _0239_
*407 _0240_
*408 _0241_
*409 _0242_
*410 _0243_
*411 _0244_
*412 _0245_
*413 _0246_
*414 _0247_
*415 _0248_
*416 _0249_
*417 _0250_
*418 _0251_
*419 _0252_
*420 _0253_
*421 _0254_
*422 _0255_
*423 _0256_
*424 _0257_
*425 _0258_
*426 _0259_
*427 _0260_
*428 _0261_
*429 _0262_
*430 _0263_
*431 _0264_
*432 _0265_
*433 _0266_
*434 _0267_
*435 _0268_
*436 _0269_
*437 _0270_
*438 _0271_
*439 _0272_
*440 _0273_
*441 _0274_
*442 _0275_
*443 _0276_
*444 _0277_
*445 _0278_
*446 _0279_
*447 _0280_
*448 _0281_
*449 _0282_
*450 _0283_
*451 _0284_
*452 _0285_
*453 _0286_
*454 _0287_
*455 _0288_
*456 _0289_
*457 _0290_
*458 _0291_
*459 _0292_
*460 _0293_
*461 _0294_
*462 _0295_
*463 _0296_
*464 _0297_
*465 _0298_
*466 _0299_
*467 _0300_
*468 _0301_
*469 _0302_
*470 _0303_
*471 _0304_
*472 _0305_
*473 _0306_
*474 _0307_
*475 _0308_
*476 _0309_
*477 _0310_
*478 _0311_
*479 _0312_
*480 _0313_
*481 _0314_
*482 _0315_
*483 _0316_
*484 _0317_
*485 _0318_
*486 _0319_
*487 _0320_
*488 _0321_
*489 _0322_
*490 _0323_
*491 _0324_
*492 _0325_
*493 _0326_
*494 _0327_
*495 _0328_
*496 _0329_
*497 _0330_
*498 _0331_
*499 _0332_
*500 _0333_
*501 _0334_
*502 _0335_
*503 _0336_
*504 _0337_
*505 _0338_
*506 _0339_
*507 _0340_
*508 _0341_
*509 _0342_
*510 _0343_
*511 _0344_
*512 _0345_
*513 _0346_
*514 _0347_
*515 _0348_
*516 _0349_
*517 _0350_
*518 _0351_
*519 _0352_
*520 _0353_
*521 _0354_
*522 _0355_
*523 _0356_
*524 _0357_
*525 _0358_
*526 _0359_
*527 _0360_
*528 _0361_
*529 _0362_
*530 _0363_
*531 _0364_
*532 _0365_
*533 _0366_
*534 _0367_
*535 _0368_
*536 _0369_
*537 _0370_
*538 _0371_
*539 _0372_
*540 _0373_
*541 _0374_
*542 _0375_
*543 _0376_
*544 _0377_
*545 _0378_
*546 _0379_
*547 _0380_
*548 _0381_
*549 _0382_
*550 _0383_
*551 _0384_
*552 _0385_
*553 _0386_
*554 _0387_
*555 _0388_
*556 _0389_
*557 _0390_
*558 _0391_
*559 _0392_
*560 _0393_
*561 _0394_
*562 _0395_
*563 _0396_
*564 _0397_
*565 _0398_
*566 _0399_
*567 _0400_
*568 _0401_
*569 _0402_
*570 _0403_
*571 _0404_
*572 _0405_
*573 _0406_
*574 _0407_
*575 _0408_
*576 _0409_
*577 _0410_
*578 _0411_
*579 _0412_
*580 _0413_
*581 _0414_
*582 _0415_
*583 _0416_
*584 _0417_
*585 _0418_
*586 _0419_
*587 _0420_
*588 _0421_
*589 _0422_
*590 _0423_
*591 _0424_
*592 _0425_
*593 _0426_
*594 _0427_
*595 _0428_
*596 _0429_
*597 _0430_
*598 _0431_
*599 _0432_
*600 _0433_
*601 _0434_
*602 _0435_
*603 _0436_
*604 _0437_
*605 _0438_
*606 _0439_
*607 _0440_
*608 _0441_
*609 _0442_
*610 _0443_
*611 _0444_
*612 _0445_
*613 _0446_
*614 _0447_
*615 _0448_
*616 _0449_
*617 _0450_
*618 _0451_
*619 _0452_
*620 _0453_
*621 _0454_
*622 _0455_
*623 _0456_
*624 _0457_
*625 _0458_
*626 _0459_
*627 _0460_
*628 _0461_
*629 _0462_
*630 _0463_
*631 _0464_
*632 _0465_
*633 _0466_
*634 _0467_
*635 _0468_
*636 _0469_
*637 _0470_
*638 _0471_
*639 _0472_
*640 _0473_
*641 _0474_
*642 _0475_
*643 _0476_
*644 _0477_
*645 clknet_0_clk
*646 clknet_4_0_0_clk
*647 clknet_4_10_0_clk
*648 clknet_4_11_0_clk
*649 clknet_4_12_0_clk
*650 clknet_4_13_0_clk
*651 clknet_4_14_0_clk
*652 clknet_4_15_0_clk
*653 clknet_4_1_0_clk
*654 clknet_4_2_0_clk
*655 clknet_4_3_0_clk
*656 clknet_4_4_0_clk
*657 clknet_4_5_0_clk
*658 clknet_4_6_0_clk
*659 clknet_4_7_0_clk
*660 clknet_4_8_0_clk
*661 clknet_4_9_0_clk
*662 cnt\[0\]
*663 cnt\[1\]
*664 cnt\[2\]
*665 cnt\[3\]
*666 cnt\[4\]
*667 cnt\[5\]
*668 cnt\[6\]
*669 cnt\[7\]
*670 net1
*671 net10
*672 net100
*673 net101
*674 net102
*675 net103
*676 net104
*677 net105
*678 net106
*679 net107
*680 net108
*681 net109
*682 net11
*683 net110
*684 net111
*685 net112
*686 net113
*687 net114
*688 net115
*689 net116
*690 net117
*691 net118
*692 net119
*693 net12
*694 net120
*695 net121
*696 net122
*697 net123
*698 net124
*699 net125
*700 net126
*701 net127
*702 net128
*703 net129
*704 net13
*705 net130
*706 net131
*707 net132
*708 net133
*709 net134
*710 net135
*711 net136
*712 net137
*713 net138
*714 net139
*715 net14
*716 net140
*717 net141
*718 net142
*719 net143
*720 net144
*721 net145
*722 net146
*723 net147
*724 net148
*725 net149
*726 net15
*727 net150
*728 net151
*729 net152
*730 net153
*731 net154
*732 net155
*733 net156
*734 net157
*735 net158
*736 net159
*737 net16
*738 net160
*739 net161
*740 net162
*741 net163
*742 net164
*743 net165
*744 net166
*745 net167
*746 net168
*747 net169
*748 net17
*749 net170
*750 net171
*751 net172
*752 net173
*753 net174
*754 net175
*755 net176
*756 net177
*757 net178
*758 net179
*759 net18
*760 net180
*761 net181
*762 net182
*763 net183
*764 net184
*765 net185
*766 net186
*767 net187
*768 net188
*769 net189
*770 net19
*771 net190
*772 net191
*773 net192
*774 net193
*775 net194
*776 net195
*777 net196
*778 net197
*779 net198
*780 net199
*781 net2
*782 net20
*783 net200
*784 net201
*785 net202
*786 net203
*787 net204
*788 net205
*789 net206
*790 net207
*791 net208
*792 net209
*793 net21
*794 net210
*795 net211
*796 net212
*797 net213
*798 net214
*799 net215
*800 net216
*801 net217
*802 net218
*803 net219
*804 net22
*805 net220
*806 net221
*807 net222
*808 net223
*809 net224
*810 net225
*811 net226
*812 net227
*813 net228
*814 net229
*815 net23
*816 net230
*817 net231
*818 net232
*819 net233
*820 net234
*821 net235
*822 net236
*823 net237
*824 net238
*825 net239
*826 net24
*827 net240
*828 net241
*829 net242
*830 net243
*831 net244
*832 net245
*833 net246
*834 net247
*835 net248
*836 net249
*837 net25
*838 net250
*839 net251
*840 net252
*841 net253
*842 net254
*843 net255
*844 net256
*845 net257
*846 net258
*847 net259
*848 net26
*849 net260
*850 net261
*851 net262
*852 net263
*853 net264
*854 net265
*855 net266
*856 net267
*857 net268
*858 net269
*859 net27
*860 net270
*861 net271
*862 net272
*863 net273
*864 net274
*865 net275
*866 net276
*867 net277
*868 net278
*869 net279
*870 net28
*871 net280
*872 net281
*873 net282
*874 net283
*875 net284
*876 net285
*877 net286
*878 net287
*879 net288
*880 net289
*881 net29
*882 net290
*883 net291
*884 net292
*885 net293
*886 net294
*887 net295
*888 net296
*889 net297
*890 net298
*891 net299
*892 net3
*893 net30
*894 net300
*895 net301
*896 net302
*897 net303
*898 net304
*899 net305
*900 net306
*901 net307
*902 net308
*903 net309
*904 net31
*905 net310
*906 net311
*907 net312
*908 net313
*909 net314
*910 net315
*911 net316
*912 net317
*913 net318
*914 net319
*915 net32
*916 net320
*917 net321
*918 net322
*919 net323
*920 net324
*921 net325
*922 net326
*923 net327
*924 net328
*925 net329
*926 net33
*927 net330
*928 net331
*929 net332
*930 net333
*931 net334
*932 net335
*933 net336
*934 net337
*935 net338
*936 net339
*937 net34
*938 net340
*939 net341
*940 net342
*941 net343
*942 net344
*943 net345
*944 net346
*945 net347
*946 net348
*947 net349
*948 net35
*949 net350
*950 net351
*951 net352
*952 net353
*953 net354
*954 net355
*955 net356
*956 net357
*957 net358
*958 net359
*959 net36
*960 net360
*961 net361
*962 net362
*963 net363
*964 net364
*965 net365
*966 net366
*967 net367
*968 net368
*969 net369
*970 net37
*971 net370
*972 net371
*973 net372
*974 net373
*975 net374
*976 net375
*977 net376
*978 net377
*979 net378
*980 net379
*981 net38
*982 net380
*983 net381
*984 net39
*985 net4
*986 net40
*987 net41
*988 net42
*989 net43
*990 net44
*991 net45
*992 net46
*993 net47
*994 net48
*995 net49
*996 net5
*997 net50
*998 net51
*999 net52
*1000 net53
*1001 net54
*1002 net55
*1003 net56
*1004 net57
*1005 net58
*1006 net59
*1007 net6
*1008 net60
*1009 net61
*1010 net62
*1011 net63
*1012 net64
*1013 net65
*1014 net66
*1015 net67
*1016 net68
*1017 net69
*1018 net7
*1019 net70
*1020 net71
*1021 net72
*1022 net73
*1023 net74
*1024 net75
*1025 net76
*1026 net77
*1027 net78
*1028 net79
*1029 net8
*1030 net80
*1031 net81
*1032 net82
*1033 net83
*1034 net84
*1035 net85
*1036 net86
*1037 net87
*1038 net88
*1039 net89
*1040 net9
*1041 net90
*1042 net91
*1043 net92
*1044 net93
*1045 net94
*1046 net95
*1047 net96
*1048 net97
*1049 net98
*1050 net99
*1051 nstate\[0\]
*1052 nstate\[1\]
*1053 pw
*1054 spm32\.csa0\.hsum2
*1055 spm32\.csa0\.sc
*1056 spm32\.csa0\.y
*1057 spm32\.genblk1\[10\]\.csa\.hsum2
*1058 spm32\.genblk1\[10\]\.csa\.sc
*1059 spm32\.genblk1\[10\]\.csa\.sum
*1060 spm32\.genblk1\[10\]\.csa\.y
*1061 spm32\.genblk1\[11\]\.csa\.hsum2
*1062 spm32\.genblk1\[11\]\.csa\.sc
*1063 spm32\.genblk1\[11\]\.csa\.y
*1064 spm32\.genblk1\[12\]\.csa\.hsum2
*1065 spm32\.genblk1\[12\]\.csa\.sc
*1066 spm32\.genblk1\[12\]\.csa\.y
*1067 spm32\.genblk1\[13\]\.csa\.hsum2
*1068 spm32\.genblk1\[13\]\.csa\.sc
*1069 spm32\.genblk1\[13\]\.csa\.y
*1070 spm32\.genblk1\[14\]\.csa\.hsum2
*1071 spm32\.genblk1\[14\]\.csa\.sc
*1072 spm32\.genblk1\[14\]\.csa\.y
*1073 spm32\.genblk1\[15\]\.csa\.hsum2
*1074 spm32\.genblk1\[15\]\.csa\.sc
*1075 spm32\.genblk1\[15\]\.csa\.y
*1076 spm32\.genblk1\[16\]\.csa\.hsum2
*1077 spm32\.genblk1\[16\]\.csa\.sc
*1078 spm32\.genblk1\[16\]\.csa\.y
*1079 spm32\.genblk1\[17\]\.csa\.hsum2
*1080 spm32\.genblk1\[17\]\.csa\.sc
*1081 spm32\.genblk1\[17\]\.csa\.y
*1082 spm32\.genblk1\[18\]\.csa\.hsum2
*1083 spm32\.genblk1\[18\]\.csa\.sc
*1084 spm32\.genblk1\[18\]\.csa\.y
*1085 spm32\.genblk1\[19\]\.csa\.hsum2
*1086 spm32\.genblk1\[19\]\.csa\.sc
*1087 spm32\.genblk1\[19\]\.csa\.y
*1088 spm32\.genblk1\[1\]\.csa\.hsum2
*1089 spm32\.genblk1\[1\]\.csa\.sc
*1090 spm32\.genblk1\[1\]\.csa\.y
*1091 spm32\.genblk1\[20\]\.csa\.hsum2
*1092 spm32\.genblk1\[20\]\.csa\.sc
*1093 spm32\.genblk1\[20\]\.csa\.y
*1094 spm32\.genblk1\[21\]\.csa\.hsum2
*1095 spm32\.genblk1\[21\]\.csa\.sc
*1096 spm32\.genblk1\[21\]\.csa\.y
*1097 spm32\.genblk1\[22\]\.csa\.hsum2
*1098 spm32\.genblk1\[22\]\.csa\.sc
*1099 spm32\.genblk1\[22\]\.csa\.y
*1100 spm32\.genblk1\[23\]\.csa\.hsum2
*1101 spm32\.genblk1\[23\]\.csa\.sc
*1102 spm32\.genblk1\[23\]\.csa\.y
*1103 spm32\.genblk1\[24\]\.csa\.hsum2
*1104 spm32\.genblk1\[24\]\.csa\.sc
*1105 spm32\.genblk1\[24\]\.csa\.y
*1106 spm32\.genblk1\[25\]\.csa\.hsum2
*1107 spm32\.genblk1\[25\]\.csa\.sc
*1108 spm32\.genblk1\[25\]\.csa\.y
*1109 spm32\.genblk1\[26\]\.csa\.hsum2
*1110 spm32\.genblk1\[26\]\.csa\.sc
*1111 spm32\.genblk1\[26\]\.csa\.y
*1112 spm32\.genblk1\[27\]\.csa\.hsum2
*1113 spm32\.genblk1\[27\]\.csa\.sc
*1114 spm32\.genblk1\[27\]\.csa\.y
*1115 spm32\.genblk1\[28\]\.csa\.hsum2
*1116 spm32\.genblk1\[28\]\.csa\.sc
*1117 spm32\.genblk1\[28\]\.csa\.y
*1118 spm32\.genblk1\[29\]\.csa\.hsum2
*1119 spm32\.genblk1\[29\]\.csa\.sc
*1120 spm32\.genblk1\[29\]\.csa\.y
*1121 spm32\.genblk1\[2\]\.csa\.hsum2
*1122 spm32\.genblk1\[2\]\.csa\.sc
*1123 spm32\.genblk1\[2\]\.csa\.y
*1124 spm32\.genblk1\[30\]\.csa\.hsum2
*1125 spm32\.genblk1\[30\]\.csa\.sc
*1126 spm32\.genblk1\[30\]\.csa\.y
*1127 spm32\.genblk1\[3\]\.csa\.hsum2
*1128 spm32\.genblk1\[3\]\.csa\.sc
*1129 spm32\.genblk1\[3\]\.csa\.y
*1130 spm32\.genblk1\[4\]\.csa\.hsum2
*1131 spm32\.genblk1\[4\]\.csa\.sc
*1132 spm32\.genblk1\[4\]\.csa\.y
*1133 spm32\.genblk1\[5\]\.csa\.hsum2
*1134 spm32\.genblk1\[5\]\.csa\.sc
*1135 spm32\.genblk1\[5\]\.csa\.y
*1136 spm32\.genblk1\[6\]\.csa\.hsum2
*1137 spm32\.genblk1\[6\]\.csa\.sc
*1138 spm32\.genblk1\[6\]\.csa\.y
*1139 spm32\.genblk1\[7\]\.csa\.hsum2
*1140 spm32\.genblk1\[7\]\.csa\.sc
*1141 spm32\.genblk1\[7\]\.csa\.y
*1142 spm32\.genblk1\[8\]\.csa\.hsum2
*1143 spm32\.genblk1\[8\]\.csa\.sc
*1144 spm32\.genblk1\[8\]\.csa\.y
*1145 spm32\.genblk1\[9\]\.csa\.hsum2
*1146 spm32\.genblk1\[9\]\.csa\.sc
*1147 spm32\.tcmp\.z
*1148 state\[0\]
*1149 state\[1\]
*1150 FILLER_0_104
*1151 FILLER_0_111
*1152 FILLER_0_113
*1153 FILLER_0_118
*1154 FILLER_0_125
*1155 FILLER_0_132
*1156 FILLER_0_139
*1157 FILLER_0_141
*1158 FILLER_0_146
*1159 FILLER_0_15
*1160 FILLER_0_153
*1161 FILLER_0_160
*1162 FILLER_0_167
*1163 FILLER_0_169
*1164 FILLER_0_174
*1165 FILLER_0_186
*1166 FILLER_0_195
*1167 FILLER_0_197
*1168 FILLER_0_202
*1169 FILLER_0_209
*1170 FILLER_0_216
*1171 FILLER_0_267
*1172 FILLER_0_27
*1173 FILLER_0_29
*1174 FILLER_0_3
*1175 FILLER_0_38
*1176 FILLER_0_50
*1177 FILLER_0_55
*1178 FILLER_0_57
*1179 FILLER_0_65
*1180 FILLER_0_69
*1181 FILLER_0_76
*1182 FILLER_0_83
*1183 FILLER_0_85
*1184 FILLER_0_93
*1185 FILLER_0_97
*1186 FILLER_10_10
*1187 FILLER_10_106
*1188 FILLER_10_139
*1189 FILLER_10_144
*1190 FILLER_10_150
*1191 FILLER_10_174
*1192 FILLER_10_182
*1193 FILLER_10_188
*1194 FILLER_10_202
*1195 FILLER_10_22
*1196 FILLER_10_29
*1197 FILLER_10_41
*1198 FILLER_10_49
*1199 FILLER_10_60
*1200 FILLER_10_72
*1201 FILLER_10_85
*1202 FILLER_10_91
*1203 FILLER_10_96
*1204 FILLER_11_102
*1205 FILLER_11_136
*1206 FILLER_11_148
*1207 FILLER_11_160
*1208 FILLER_11_164
*1209 FILLER_11_169
*1210 FILLER_11_17
*1211 FILLER_11_175
*1212 FILLER_11_179
*1213 FILLER_11_187
*1214 FILLER_11_195
*1215 FILLER_11_209
*1216 FILLER_11_213
*1217 FILLER_11_223
*1218 FILLER_11_25
*1219 FILLER_11_271
*1220 FILLER_11_6
*1221 FILLER_11_71
*1222 FILLER_12_133
*1223 FILLER_12_139
*1224 FILLER_12_141
*1225 FILLER_12_153
*1226 FILLER_12_159
*1227 FILLER_12_163
*1228 FILLER_12_181
*1229 FILLER_12_191
*1230 FILLER_12_195
*1231 FILLER_12_197
*1232 FILLER_12_205
*1233 FILLER_12_213
*1234 FILLER_12_26
*1235 FILLER_12_41
*1236 FILLER_12_85
*1237 FILLER_13_126
*1238 FILLER_13_138
*1239 FILLER_13_147
*1240 FILLER_13_155
*1241 FILLER_13_200
*1242 FILLER_13_212
*1243 FILLER_13_247
*1244 FILLER_13_268
*1245 FILLER_13_28
*1246 FILLER_13_3
*1247 FILLER_13_55
*1248 FILLER_13_94
*1249 FILLER_14_133
*1250 FILLER_14_139
*1251 FILLER_14_148
*1252 FILLER_14_177
*1253 FILLER_14_189
*1254 FILLER_14_195
*1255 FILLER_14_197
*1256 FILLER_14_209
*1257 FILLER_14_215
*1258 FILLER_14_236
*1259 FILLER_14_43
*1260 FILLER_14_77
*1261 FILLER_14_83
*1262 FILLER_14_89
*1263 FILLER_15_109
*1264 FILLER_15_167
*1265 FILLER_15_172
*1266 FILLER_15_184
*1267 FILLER_15_196
*1268 FILLER_15_208
*1269 FILLER_15_212
*1270 FILLER_15_28
*1271 FILLER_15_3
*1272 FILLER_15_34
*1273 FILLER_15_55
*1274 FILLER_15_71
*1275 FILLER_15_83
*1276 FILLER_15_98
*1277 FILLER_16_109
*1278 FILLER_16_138
*1279 FILLER_16_141
*1280 FILLER_16_149
*1281 FILLER_16_170
*1282 FILLER_16_182
*1283 FILLER_16_194
*1284 FILLER_16_197
*1285 FILLER_16_209
*1286 FILLER_16_217
*1287 FILLER_16_251
*1288 FILLER_16_260
*1289 FILLER_16_29
*1290 FILLER_16_3
*1291 FILLER_16_33
*1292 FILLER_16_66
*1293 FILLER_17_100
*1294 FILLER_17_113
*1295 FILLER_17_121
*1296 FILLER_17_125
*1297 FILLER_17_134
*1298 FILLER_17_146
*1299 FILLER_17_154
*1300 FILLER_17_161
*1301 FILLER_17_167
*1302 FILLER_17_169
*1303 FILLER_17_181
*1304 FILLER_17_193
*1305 FILLER_17_20
*1306 FILLER_17_205
*1307 FILLER_17_217
*1308 FILLER_17_223
*1309 FILLER_17_225
*1310 FILLER_17_231
*1311 FILLER_17_252
*1312 FILLER_17_30
*1313 FILLER_17_38
*1314 FILLER_17_55
*1315 FILLER_17_57
*1316 FILLER_17_6
*1317 FILLER_17_61
*1318 FILLER_17_73
*1319 FILLER_17_77
*1320 FILLER_18_101
*1321 FILLER_18_109
*1322 FILLER_18_134
*1323 FILLER_18_141
*1324 FILLER_18_153
*1325 FILLER_18_165
*1326 FILLER_18_177
*1327 FILLER_18_189
*1328 FILLER_18_195
*1329 FILLER_18_197
*1330 FILLER_18_209
*1331 FILLER_18_221
*1332 FILLER_18_229
*1333 FILLER_18_25
*1334 FILLER_18_29
*1335 FILLER_18_3
*1336 FILLER_18_56
*1337 FILLER_18_70
*1338 FILLER_18_85
*1339 FILLER_19_111
*1340 FILLER_19_113
*1341 FILLER_19_119
*1342 FILLER_19_123
*1343 FILLER_19_135
*1344 FILLER_19_147
*1345 FILLER_19_159
*1346 FILLER_19_167
*1347 FILLER_19_169
*1348 FILLER_19_181
*1349 FILLER_19_193
*1350 FILLER_19_20
*1351 FILLER_19_205
*1352 FILLER_19_217
*1353 FILLER_19_223
*1354 FILLER_19_225
*1355 FILLER_19_233
*1356 FILLER_19_271
*1357 FILLER_19_52
*1358 FILLER_19_57
*1359 FILLER_19_67
*1360 FILLER_19_99
*1361 FILLER_1_103
*1362 FILLER_1_113
*1363 FILLER_1_117
*1364 FILLER_1_124
*1365 FILLER_1_131
*1366 FILLER_1_136
*1367 FILLER_1_15
*1368 FILLER_1_154
*1369 FILLER_1_166
*1370 FILLER_1_182
*1371 FILLER_1_190
*1372 FILLER_1_203
*1373 FILLER_1_210
*1374 FILLER_1_219
*1375 FILLER_1_223
*1376 FILLER_1_23
*1377 FILLER_1_238
*1378 FILLER_1_263
*1379 FILLER_1_3
*1380 FILLER_1_55
*1381 FILLER_1_72
*1382 FILLER_1_76
*1383 FILLER_1_98
*1384 FILLER_20_106
*1385 FILLER_20_141
*1386 FILLER_20_153
*1387 FILLER_20_165
*1388 FILLER_20_177
*1389 FILLER_20_189
*1390 FILLER_20_195
*1391 FILLER_20_197
*1392 FILLER_20_209
*1393 FILLER_20_221
*1394 FILLER_20_229
*1395 FILLER_20_27
*1396 FILLER_20_3
*1397 FILLER_20_38
*1398 FILLER_20_50
*1399 FILLER_20_99
*1400 FILLER_21_105
*1401 FILLER_21_111
*1402 FILLER_21_117
*1403 FILLER_21_130
*1404 FILLER_21_142
*1405 FILLER_21_154
*1406 FILLER_21_166
*1407 FILLER_21_169
*1408 FILLER_21_181
*1409 FILLER_21_193
*1410 FILLER_21_205
*1411 FILLER_21_217
*1412 FILLER_21_223
*1413 FILLER_21_225
*1414 FILLER_21_249
*1415 FILLER_21_33
*1416 FILLER_21_45
*1417 FILLER_21_51
*1418 FILLER_21_55
*1419 FILLER_21_57
*1420 FILLER_21_61
*1421 FILLER_21_85
*1422 FILLER_21_9
*1423 FILLER_22_101
*1424 FILLER_22_110
*1425 FILLER_22_121
*1426 FILLER_22_133
*1427 FILLER_22_139
*1428 FILLER_22_141
*1429 FILLER_22_153
*1430 FILLER_22_165
*1431 FILLER_22_177
*1432 FILLER_22_189
*1433 FILLER_22_195
*1434 FILLER_22_197
*1435 FILLER_22_209
*1436 FILLER_22_221
*1437 FILLER_22_229
*1438 FILLER_22_268
*1439 FILLER_22_29
*1440 FILLER_22_50
*1441 FILLER_22_6
*1442 FILLER_22_62
*1443 FILLER_23_111
*1444 FILLER_23_113
*1445 FILLER_23_118
*1446 FILLER_23_130
*1447 FILLER_23_158
*1448 FILLER_23_166
*1449 FILLER_23_169
*1450 FILLER_23_181
*1451 FILLER_23_193
*1452 FILLER_23_205
*1453 FILLER_23_217
*1454 FILLER_23_223
*1455 FILLER_23_249
*1456 FILLER_23_29
*1457 FILLER_23_35
*1458 FILLER_23_6
*1459 FILLER_23_60
*1460 FILLER_23_72
*1461 FILLER_23_79
*1462 FILLER_23_86
*1463 FILLER_23_99
*1464 FILLER_24_103
*1465 FILLER_24_130
*1466 FILLER_24_138
*1467 FILLER_24_141
*1468 FILLER_24_153
*1469 FILLER_24_165
*1470 FILLER_24_177
*1471 FILLER_24_189
*1472 FILLER_24_195
*1473 FILLER_24_197
*1474 FILLER_24_209
*1475 FILLER_24_221
*1476 FILLER_24_229
*1477 FILLER_24_236
*1478 FILLER_24_241
*1479 FILLER_24_251
*1480 FILLER_24_39
*1481 FILLER_24_54
*1482 FILLER_24_6
*1483 FILLER_24_66
*1484 FILLER_24_78
*1485 FILLER_24_85
*1486 FILLER_24_97
*1487 FILLER_25_104
*1488 FILLER_25_113
*1489 FILLER_25_125
*1490 FILLER_25_137
*1491 FILLER_25_149
*1492 FILLER_25_161
*1493 FILLER_25_167
*1494 FILLER_25_169
*1495 FILLER_25_181
*1496 FILLER_25_193
*1497 FILLER_25_205
*1498 FILLER_25_217
*1499 FILLER_25_245
*1500 FILLER_25_3
*1501 FILLER_25_68
*1502 FILLER_25_80
*1503 FILLER_25_92
*1504 FILLER_26_109
*1505 FILLER_26_122
*1506 FILLER_26_134
*1507 FILLER_26_141
*1508 FILLER_26_153
*1509 FILLER_26_165
*1510 FILLER_26_177
*1511 FILLER_26_189
*1512 FILLER_26_195
*1513 FILLER_26_197
*1514 FILLER_26_209
*1515 FILLER_26_243
*1516 FILLER_26_40
*1517 FILLER_26_46
*1518 FILLER_26_58
*1519 FILLER_26_6
*1520 FILLER_26_70
*1521 FILLER_26_82
*1522 FILLER_26_85
*1523 FILLER_26_97
*1524 FILLER_27_105
*1525 FILLER_27_133
*1526 FILLER_27_145
*1527 FILLER_27_157
*1528 FILLER_27_165
*1529 FILLER_27_169
*1530 FILLER_27_181
*1531 FILLER_27_193
*1532 FILLER_27_205
*1533 FILLER_27_217
*1534 FILLER_27_223
*1535 FILLER_27_225
*1536 FILLER_27_230
*1537 FILLER_27_271
*1538 FILLER_27_36
*1539 FILLER_27_47
*1540 FILLER_27_55
*1541 FILLER_27_57
*1542 FILLER_27_6
*1543 FILLER_27_69
*1544 FILLER_27_81
*1545 FILLER_27_93
*1546 FILLER_28_124
*1547 FILLER_28_134
*1548 FILLER_28_141
*1549 FILLER_28_153
*1550 FILLER_28_165
*1551 FILLER_28_177
*1552 FILLER_28_189
*1553 FILLER_28_195
*1554 FILLER_28_197
*1555 FILLER_28_209
*1556 FILLER_28_230
*1557 FILLER_28_3
*1558 FILLER_28_34
*1559 FILLER_28_42
*1560 FILLER_28_48
*1561 FILLER_28_60
*1562 FILLER_28_72
*1563 FILLER_28_85
*1564 FILLER_28_97
*1565 FILLER_29_104
*1566 FILLER_29_113
*1567 FILLER_29_118
*1568 FILLER_29_130
*1569 FILLER_29_142
*1570 FILLER_29_154
*1571 FILLER_29_166
*1572 FILLER_29_169
*1573 FILLER_29_181
*1574 FILLER_29_193
*1575 FILLER_29_202
*1576 FILLER_29_245
*1577 FILLER_29_255
*1578 FILLER_29_30
*1579 FILLER_29_6
*1580 FILLER_29_60
*1581 FILLER_29_72
*1582 FILLER_29_84
*1583 FILLER_29_96
*1584 FILLER_2_109
*1585 FILLER_2_121
*1586 FILLER_2_127
*1587 FILLER_2_15
*1588 FILLER_2_172
*1589 FILLER_2_195
*1590 FILLER_2_202
*1591 FILLER_2_23
*1592 FILLER_2_243
*1593 FILLER_2_3
*1594 FILLER_2_52
*1595 FILLER_30_109
*1596 FILLER_30_113
*1597 FILLER_30_119
*1598 FILLER_30_131
*1599 FILLER_30_139
*1600 FILLER_30_141
*1601 FILLER_30_153
*1602 FILLER_30_165
*1603 FILLER_30_177
*1604 FILLER_30_189
*1605 FILLER_30_195
*1606 FILLER_30_228
*1607 FILLER_30_236
*1608 FILLER_30_32
*1609 FILLER_30_6
*1610 FILLER_30_74
*1611 FILLER_30_82
*1612 FILLER_30_85
*1613 FILLER_30_97
*1614 FILLER_31_104
*1615 FILLER_31_133
*1616 FILLER_31_145
*1617 FILLER_31_157
*1618 FILLER_31_165
*1619 FILLER_31_169
*1620 FILLER_31_181
*1621 FILLER_31_202
*1622 FILLER_31_225
*1623 FILLER_31_26
*1624 FILLER_31_32
*1625 FILLER_31_40
*1626 FILLER_31_55
*1627 FILLER_31_68
*1628 FILLER_31_80
*1629 FILLER_31_92
*1630 FILLER_32_128
*1631 FILLER_32_141
*1632 FILLER_32_153
*1633 FILLER_32_161
*1634 FILLER_32_167
*1635 FILLER_32_186
*1636 FILLER_32_195
*1637 FILLER_32_204
*1638 FILLER_32_51
*1639 FILLER_32_63
*1640 FILLER_32_75
*1641 FILLER_32_83
*1642 FILLER_32_85
*1643 FILLER_32_97
*1644 FILLER_33_111
*1645 FILLER_33_119
*1646 FILLER_33_131
*1647 FILLER_33_139
*1648 FILLER_33_147
*1649 FILLER_33_205
*1650 FILLER_33_225
*1651 FILLER_33_51
*1652 FILLER_33_57
*1653 FILLER_33_69
*1654 FILLER_33_93
*1655 FILLER_33_99
*1656 FILLER_34_113
*1657 FILLER_34_125
*1658 FILLER_34_131
*1659 FILLER_34_165
*1660 FILLER_34_21
*1661 FILLER_34_211
*1662 FILLER_34_240
*1663 FILLER_34_250
*1664 FILLER_34_257
*1665 FILLER_34_29
*1666 FILLER_34_6
*1667 FILLER_34_73
*1668 FILLER_34_81
*1669 FILLER_34_94
*1670 FILLER_35_109
*1671 FILLER_35_113
*1672 FILLER_35_137
*1673 FILLER_35_166
*1674 FILLER_35_215
*1675 FILLER_35_3
*1676 FILLER_35_55
*1677 FILLER_35_62
*1678 FILLER_35_70
*1679 FILLER_36_119
*1680 FILLER_36_131
*1681 FILLER_36_149
*1682 FILLER_36_176
*1683 FILLER_36_195
*1684 FILLER_36_197
*1685 FILLER_36_253
*1686 FILLER_36_27
*1687 FILLER_36_271
*1688 FILLER_36_3
*1689 FILLER_36_40
*1690 FILLER_36_70
*1691 FILLER_36_85
*1692 FILLER_36_98
*1693 FILLER_37_111
*1694 FILLER_37_129
*1695 FILLER_37_156
*1696 FILLER_37_167
*1697 FILLER_37_177
*1698 FILLER_37_195
*1699 FILLER_37_215
*1700 FILLER_37_244
*1701 FILLER_37_3
*1702 FILLER_37_41
*1703 FILLER_37_55
*1704 FILLER_37_60
*1705 FILLER_37_64
*1706 FILLER_37_70
*1707 FILLER_37_78
*1708 FILLER_37_84
*1709 FILLER_37_97
*1710 FILLER_38_122
*1711 FILLER_38_130
*1712 FILLER_38_139
*1713 FILLER_38_187
*1714 FILLER_38_234
*1715 FILLER_38_250
*1716 FILLER_38_36
*1717 FILLER_38_6
*1718 FILLER_38_88
*1719 FILLER_39_105
*1720 FILLER_39_111
*1721 FILLER_39_116
*1722 FILLER_39_124
*1723 FILLER_39_158
*1724 FILLER_39_167
*1725 FILLER_39_225
*1726 FILLER_39_36
*1727 FILLER_39_66
*1728 FILLER_39_78
*1729 FILLER_39_90
*1730 FILLER_3_11
*1731 FILLER_3_216
*1732 FILLER_3_220
*1733 FILLER_3_272
*1734 FILLER_3_3
*1735 FILLER_3_34
*1736 FILLER_3_38
*1737 FILLER_3_52
*1738 FILLER_3_57
*1739 FILLER_3_62
*1740 FILLER_40_111
*1741 FILLER_40_129
*1742 FILLER_40_138
*1743 FILLER_40_141
*1744 FILLER_40_195
*1745 FILLER_40_204
*1746 FILLER_40_24
*1747 FILLER_40_34
*1748 FILLER_40_6
*1749 FILLER_40_70
*1750 FILLER_40_76
*1751 FILLER_40_83
*1752 FILLER_40_99
*1753 FILLER_41_100
*1754 FILLER_41_136
*1755 FILLER_41_169
*1756 FILLER_41_206
*1757 FILLER_41_26
*1758 FILLER_41_35
*1759 FILLER_41_6
*1760 FILLER_41_66
*1761 FILLER_42_141
*1762 FILLER_42_151
*1763 FILLER_42_175
*1764 FILLER_42_233
*1765 FILLER_42_242
*1766 FILLER_42_27
*1767 FILLER_42_3
*1768 FILLER_42_43
*1769 FILLER_43_101
*1770 FILLER_43_111
*1771 FILLER_43_113
*1772 FILLER_43_166
*1773 FILLER_43_24
*1774 FILLER_43_3
*1775 FILLER_43_57
*1776 FILLER_44_106
*1777 FILLER_44_138
*1778 FILLER_44_156
*1779 FILLER_44_182
*1780 FILLER_44_195
*1781 FILLER_44_201
*1782 FILLER_44_24
*1783 FILLER_44_243
*1784 FILLER_44_29
*1785 FILLER_44_3
*1786 FILLER_44_41
*1787 FILLER_44_53
*1788 FILLER_44_68
*1789 FILLER_44_72
*1790 FILLER_44_82
*1791 FILLER_44_85
*1792 FILLER_44_91
*1793 FILLER_44_97
*1794 FILLER_45_113
*1795 FILLER_45_134
*1796 FILLER_45_141
*1797 FILLER_45_15
*1798 FILLER_45_187
*1799 FILLER_45_197
*1800 FILLER_45_236
*1801 FILLER_45_264
*1802 FILLER_45_27
*1803 FILLER_45_29
*1804 FILLER_45_41
*1805 FILLER_45_53
*1806 FILLER_45_57
*1807 FILLER_45_62
*1808 FILLER_45_69
*1809 FILLER_4_100
*1810 FILLER_4_112
*1811 FILLER_4_138
*1812 FILLER_4_15
*1813 FILLER_4_155
*1814 FILLER_4_167
*1815 FILLER_4_185
*1816 FILLER_4_194
*1817 FILLER_4_21
*1818 FILLER_4_213
*1819 FILLER_4_3
*1820 FILLER_4_32
*1821 FILLER_4_44
*1822 FILLER_4_49
*1823 FILLER_4_90
*1824 FILLER_5_101
*1825 FILLER_5_141
*1826 FILLER_5_160
*1827 FILLER_5_169
*1828 FILLER_5_177
*1829 FILLER_5_18
*1830 FILLER_5_184
*1831 FILLER_5_189
*1832 FILLER_5_196
*1833 FILLER_5_249
*1834 FILLER_5_259
*1835 FILLER_5_268
*1836 FILLER_5_32
*1837 FILLER_5_40
*1838 FILLER_5_51
*1839 FILLER_5_6
*1840 FILLER_5_64
*1841 FILLER_5_71
*1842 FILLER_5_83
*1843 FILLER_5_89
*1844 FILLER_5_96
*1845 FILLER_6_109
*1846 FILLER_6_118
*1847 FILLER_6_130
*1848 FILLER_6_138
*1849 FILLER_6_141
*1850 FILLER_6_153
*1851 FILLER_6_165
*1852 FILLER_6_174
*1853 FILLER_6_186
*1854 FILLER_6_19
*1855 FILLER_6_194