* NGSPICE file created from pm32.ext - technology: sky130A

* Black-box entry subcircuit for sky130_ef_sc_hd__decap_12 abstract view
.subckt sky130_ef_sc_hd__decap_12 VPWR VGND VPB VNB
.ends

* Black-box entry subcircuit for sky130_fd_sc_hd__tapvpwrvgnd_1 abstract view
.subckt sky130_fd_sc_hd__tapvpwrvgnd_1 VGND VPWR
.ends

* Black-box entry subcircuit for sky130_fd_sc_hd__fill_1 abstract view
.subckt sky130_fd_sc_hd__fill_1 VGND VNB VPB VPWR
.ends

* Black-box entry subcircuit for sky130_fd_sc_hd__decap_4 abstract view
.subckt sky130_fd_sc_hd__decap_4 VGND VNB VPB VPWR
.ends

* Black-box entry subcircuit for sky130_fd_sc_hd__inv_2 abstract view
.subckt sky130_fd_sc_hd__inv_2 A VGND VNB VPB VPWR Y
.ends

* Black-box entry subcircuit for sky130_fd_sc_hd__buf_2 abstract view
.subckt sky130_fd_sc_hd__buf_2 A VGND VNB VPB VPWR X
.ends

* Black-box entry subcircuit for sky130_fd_sc_hd__clkbuf_2 abstract view
.subckt sky130_fd_sc_hd__clkbuf_2 A VGND VNB VPB VPWR X
.ends

* Black-box entry subcircuit for sky130_fd_sc_hd__dlygate4sd3_1 abstract view
.subckt sky130_fd_sc_hd__dlygate4sd3_1 A VGND VNB VPB VPWR X
.ends

* Black-box entry subcircuit for sky130_fd_sc_hd__o21ai_1 abstract view
.subckt sky130_fd_sc_hd__o21ai_1 A1 A2 B1 VGND VNB VPB VPWR Y
.ends

* Black-box entry subcircuit for sky130_fd_sc_hd__fill_2 abstract view
.subckt sky130_fd_sc_hd__fill_2 VGND VNB VPB VPWR
.ends

* Black-box entry subcircuit for sky130_fd_sc_hd__clkbuf_8 abstract view
.subckt sky130_fd_sc_hd__clkbuf_8 A VGND VNB VPB VPWR X
.ends

* Black-box entry subcircuit for sky130_fd_sc_hd__decap_8 abstract view
.subckt sky130_fd_sc_hd__decap_8 VGND VNB VPB VPWR
.ends

* Black-box entry subcircuit for sky130_fd_sc_hd__and3_1 abstract view
.subckt sky130_fd_sc_hd__and3_1 A B C VGND VNB VPB VPWR X
.ends

* Black-box entry subcircuit for sky130_fd_sc_hd__nand2_1 abstract view
.subckt sky130_fd_sc_hd__nand2_1 A B VGND VNB VPB VPWR Y
.ends

* Black-box entry subcircuit for sky130_fd_sc_hd__dfrtp_1 abstract view
.subckt sky130_fd_sc_hd__dfrtp_1 CLK D RESET_B VGND VNB VPB VPWR Q
.ends

* Black-box entry subcircuit for sky130_fd_sc_hd__decap_6 abstract view
.subckt sky130_fd_sc_hd__decap_6 VGND VNB VPB VPWR
.ends

* Black-box entry subcircuit for sky130_fd_sc_hd__decap_3 abstract view
.subckt sky130_fd_sc_hd__decap_3 VGND VNB VPB VPWR
.ends

* Black-box entry subcircuit for sky130_fd_sc_hd__xor2_1 abstract view
.subckt sky130_fd_sc_hd__xor2_1 A B VGND VNB VPB VPWR X
.ends

* Black-box entry subcircuit for sky130_fd_sc_hd__a22o_1 abstract view
.subckt sky130_fd_sc_hd__a22o_1 A1 A2 B1 B2 VGND VNB VPB VPWR X
.ends

* Black-box entry subcircuit for sky130_fd_sc_hd__o221a_1 abstract view
.subckt sky130_fd_sc_hd__o221a_1 A1 A2 B1 B2 C1 VGND VNB VPB VPWR X
.ends

* Black-box entry subcircuit for sky130_fd_sc_hd__or2_1 abstract view
.subckt sky130_fd_sc_hd__or2_1 A B VGND VNB VPB VPWR X
.ends

* Black-box entry subcircuit for sky130_fd_sc_hd__a21o_1 abstract view
.subckt sky130_fd_sc_hd__a21o_1 A1 A2 B1 VGND VNB VPB VPWR X
.ends

* Black-box entry subcircuit for sky130_fd_sc_hd__o21a_1 abstract view
.subckt sky130_fd_sc_hd__o21a_1 A1 A2 B1 VGND VNB VPB VPWR X
.ends

* Black-box entry subcircuit for sky130_fd_sc_hd__and2_1 abstract view
.subckt sky130_fd_sc_hd__and2_1 A B VGND VNB VPB VPWR X
.ends

* Black-box entry subcircuit for sky130_fd_sc_hd__nand3_1 abstract view
.subckt sky130_fd_sc_hd__nand3_1 A B C VGND VNB VPB VPWR Y
.ends

* Black-box entry subcircuit for sky130_fd_sc_hd__a31o_1 abstract view
.subckt sky130_fd_sc_hd__a31o_1 A1 A2 A3 B1 VGND VNB VPB VPWR X
.ends

* Black-box entry subcircuit for sky130_fd_sc_hd__bufinv_16 abstract view
.subckt sky130_fd_sc_hd__bufinv_16 A VGND VNB VPB VPWR Y
.ends

* Black-box entry subcircuit for sky130_fd_sc_hd__dfxtp_1 abstract view
.subckt sky130_fd_sc_hd__dfxtp_1 CLK D VGND VNB VPB VPWR Q
.ends

* Black-box entry subcircuit for sky130_fd_sc_hd__a221o_1 abstract view
.subckt sky130_fd_sc_hd__a221o_1 A1 A2 B1 B2 C1 VGND VNB VPB VPWR X
.ends

* Black-box entry subcircuit for sky130_fd_sc_hd__inv_6 abstract view
.subckt sky130_fd_sc_hd__inv_6 A VGND VNB VPB VPWR Y
.ends

* Black-box entry subcircuit for sky130_fd_sc_hd__clkbuf_16 abstract view
.subckt sky130_fd_sc_hd__clkbuf_16 A VGND VNB VPB VPWR X
.ends

* Black-box entry subcircuit for sky130_fd_sc_hd__clkinvlp_4 abstract view
.subckt sky130_fd_sc_hd__clkinvlp_4 A VGND VNB VPB VPWR Y
.ends

* Black-box entry subcircuit for sky130_fd_sc_hd__nor2_1 abstract view
.subckt sky130_fd_sc_hd__nor2_1 A B VGND VNB VPB VPWR Y
.ends

* Black-box entry subcircuit for sky130_fd_sc_hd__clkinv_4 abstract view
.subckt sky130_fd_sc_hd__clkinv_4 A VGND VNB VPB VPWR Y
.ends

* Black-box entry subcircuit for sky130_fd_sc_hd__clkbuf_4 abstract view
.subckt sky130_fd_sc_hd__clkbuf_4 A VGND VNB VPB VPWR X
.ends

* Black-box entry subcircuit for sky130_fd_sc_hd__clkbuf_1 abstract view
.subckt sky130_fd_sc_hd__clkbuf_1 A VGND VNB VPB VPWR X
.ends

* Black-box entry subcircuit for sky130_fd_sc_hd__a21oi_1 abstract view
.subckt sky130_fd_sc_hd__a21oi_1 A1 A2 B1 VGND VNB VPB VPWR Y
.ends

* Black-box entry subcircuit for sky130_fd_sc_hd__and2_2 abstract view
.subckt sky130_fd_sc_hd__and2_2 A B VGND VNB VPB VPWR X
.ends

* Black-box entry subcircuit for sky130_fd_sc_hd__or2_2 abstract view
.subckt sky130_fd_sc_hd__or2_2 A B VGND VNB VPB VPWR X
.ends

* Black-box entry subcircuit for sky130_fd_sc_hd__and2b_1 abstract view
.subckt sky130_fd_sc_hd__and2b_1 A_N B VGND VNB VPB VPWR X
.ends

* Black-box entry subcircuit for sky130_fd_sc_hd__and4_1 abstract view
.subckt sky130_fd_sc_hd__and4_1 A B C D VGND VNB VPB VPWR X
.ends

* Black-box entry subcircuit for sky130_fd_sc_hd__and3b_1 abstract view
.subckt sky130_fd_sc_hd__and3b_1 A_N B C VGND VNB VPB VPWR X
.ends

* Black-box entry subcircuit for sky130_fd_sc_hd__buf_1 abstract view
.subckt sky130_fd_sc_hd__buf_1 A VGND VNB VPB VPWR X
.ends

* Black-box entry subcircuit for sky130_fd_sc_hd__buf_4 abstract view
.subckt sky130_fd_sc_hd__buf_4 A VGND VNB VPB VPWR X
.ends

* Black-box entry subcircuit for sky130_fd_sc_hd__a2bb2o_1 abstract view
.subckt sky130_fd_sc_hd__a2bb2o_1 A1_N A2_N B1 B2 VGND VNB VPB VPWR X
.ends

* Black-box entry subcircuit for sky130_fd_sc_hd__or4_1 abstract view
.subckt sky130_fd_sc_hd__or4_1 A B C D VGND VNB VPB VPWR X
.ends

* Black-box entry subcircuit for sky130_fd_sc_hd__or4b_1 abstract view
.subckt sky130_fd_sc_hd__or4b_1 A B C D_N VGND VNB VPB VPWR X
.ends

.subckt pm32 VGND VPWR clk done mc[0] mc[10] mc[11] mc[12] mc[13] mc[14] mc[15] mc[16]
+ mc[17] mc[18] mc[19] mc[1] mc[20] mc[21] mc[22] mc[23] mc[24] mc[25] mc[26] mc[27]
+ mc[28] mc[29] mc[2] mc[30] mc[31] mc[3] mc[4] mc[5] mc[6] mc[7] mc[8] mc[9] mp[0]
+ mp[10] mp[11] mp[12] mp[13] mp[14] mp[15] mp[16] mp[17] mp[18] mp[19] mp[1] mp[20]
+ mp[21] mp[22] mp[23] mp[24] mp[25] mp[26] mp[27] mp[28] mp[29] mp[2] mp[30] mp[31]
+ mp[3] mp[4] mp[5] mp[6] mp[7] mp[8] mp[9] p[0] p[10] p[11] p[12] p[13] p[14] p[15]
+ p[16] p[17] p[18] p[19] p[1] p[20] p[21] p[22] p[23] p[24] p[25] p[26] p[27] p[28]
+ p[29] p[2] p[30] p[31] p[32] p[33] p[34] p[35] p[36] p[37] p[38] p[39] p[3] p[40]
+ p[41] p[42] p[43] p[44] p[45] p[46] p[47] p[48] p[49] p[4] p[50] p[51] p[52] p[53]
+ p[54] p[55] p[56] p[57] p[58] p[59] p[5] p[60] p[61] p[62] p[63] p[6] p[7] p[8]
+ p[9] rst start
XFILLER_22_177 VPWR VGND VPWR VGND sky130_ef_sc_hd__decap_12
XTAP_TAPCELL_ROW_9_137 VGND VPWR sky130_fd_sc_hd__tapvpwrvgnd_1
XFILLER_45_236 VGND VGND VPWR VPWR sky130_fd_sc_hd__fill_1
XFILLER_13_111 VGND VGND VPWR VPWR sky130_fd_sc_hd__fill_1
XFILLER_26_85 VPWR VGND VPWR VGND sky130_ef_sc_hd__decap_12
XFILLER_3_34 VGND VGND VPWR VPWR sky130_fd_sc_hd__decap_4
XTAP_TAPCELL_ROW_14_161 VGND VPWR sky130_fd_sc_hd__tapvpwrvgnd_1
X_0985_ net181 VGND VGND VPWR VPWR _0190_ sky130_fd_sc_hd__inv_2
Xfanout138 net139 VGND VGND VPWR VPWR net138 sky130_fd_sc_hd__buf_2
Xfanout149 net151 VGND VGND VPWR VPWR net149 sky130_fd_sc_hd__clkbuf_2
XTAP_TAPCELL_ROW_37_264 VGND VPWR sky130_fd_sc_hd__tapvpwrvgnd_1
XFILLER_27_225 VGND VGND VPWR VPWR sky130_fd_sc_hd__decap_4
XFILLER_6_118 VPWR VGND VPWR VGND sky130_ef_sc_hd__decap_12
Xhold181 net119 VGND VGND VPWR VPWR net368 sky130_fd_sc_hd__dlygate4sd3_1
Xhold170 net113 VGND VGND VPWR VPWR net357 sky130_fd_sc_hd__dlygate4sd3_1
Xhold192 net76 VGND VGND VPWR VPWR net379 sky130_fd_sc_hd__dlygate4sd3_1
XTAP_TAPCELL_ROW_20_186 VGND VPWR sky130_fd_sc_hd__tapvpwrvgnd_1
X_0770_ _0438_ _0441_ net236 VGND VGND VPWR VPWR _0027_ sky130_fd_sc_hd__o21ai_1
XFILLER_5_184 VGND VGND VPWR VPWR sky130_fd_sc_hd__fill_2
Xclkbuf_4_12_0_clk clknet_0_clk VGND VGND VPWR VPWR clknet_4_12_0_clk sky130_fd_sc_hd__clkbuf_8
X_0968_ net173 VGND VGND VPWR VPWR _0173_ sky130_fd_sc_hd__inv_2
X_0899_ net170 VGND VGND VPWR VPWR _0104_ sky130_fd_sc_hd__inv_2
XTAP_TAPCELL_ROW_25_212 VGND VPWR sky130_fd_sc_hd__tapvpwrvgnd_1
XFILLER_23_86 VGND VGND VPWR VPWR sky130_fd_sc_hd__fill_1
XFILLER_2_121 VGND VGND VPWR VPWR sky130_fd_sc_hd__fill_2
XFILLER_0_57 VGND VGND VPWR VPWR sky130_fd_sc_hd__decap_8
XFILLER_9_88 VGND VGND VPWR VPWR sky130_fd_sc_hd__fill_1
X_0822_ cnt\[5\] cnt\[4\] _0470_ VGND VGND VPWR VPWR _0474_ sky130_fd_sc_hd__and3_1
XTAP_TAPCELL_ROW_31_237 VGND VPWR sky130_fd_sc_hd__tapvpwrvgnd_1
X_0753_ net31 _0341_ VGND VGND VPWR VPWR _0430_ sky130_fd_sc_hd__nand2_1
X_0684_ _0383_ _0384_ VGND VGND VPWR VPWR _0385_ sky130_fd_sc_hd__nand2_1
X_1098_ clknet_4_2_0_clk spm32.genblk1\[29\].csa.hsum2 _0133_ VGND VGND VPWR VPWR
+ spm32.genblk1\[28\].csa.y sky130_fd_sc_hd__dfrtp_1
XFILLER_12_209 VGND VGND VPWR VPWR sky130_fd_sc_hd__decap_6
XTAP_TAPCELL_ROW_45_307 VGND VPWR sky130_fd_sc_hd__tapvpwrvgnd_1
XFILLER_38_139 VGND VGND VPWR VPWR sky130_fd_sc_hd__fill_1
X_1021_ clknet_4_10_0_clk net307 _0064_ VGND VGND VPWR VPWR net92 sky130_fd_sc_hd__dfrtp_1
XPHY_EDGE_ROW_28_Left_74 VGND VGND VPWR VPWR sky130_fd_sc_hd__decap_3
X_0805_ net212 spm32.csa0.y VGND VGND VPWR VPWR _0464_ sky130_fd_sc_hd__nand2_1
XPHY_EDGE_ROW_12_Left_58 VGND VGND VPWR VPWR sky130_fd_sc_hd__decap_3
X_0667_ _0370_ _0373_ VGND VGND VPWR VPWR spm32.genblk1\[23\].csa.hsum2 sky130_fd_sc_hd__xor2_1
X_0736_ net223 spm32.genblk1\[11\].csa.y VGND VGND VPWR VPWR _0419_ sky130_fd_sc_hd__nand2_1
X_0598_ net338 net153 net133 net366 VGND VGND VPWR VPWR _0210_ sky130_fd_sc_hd__a22o_1
Xhold52 spm32.genblk1\[5\].csa.sc VGND VGND VPWR VPWR net239 sky130_fd_sc_hd__dlygate4sd3_1
Xhold30 _0431_ VGND VGND VPWR VPWR net217 sky130_fd_sc_hd__dlygate4sd3_1
Xhold41 _0355_ VGND VGND VPWR VPWR net228 sky130_fd_sc_hd__dlygate4sd3_1
Xhold63 spm32.genblk1\[28\].csa.sc VGND VGND VPWR VPWR net250 sky130_fd_sc_hd__dlygate4sd3_1
Xhold74 net86 VGND VGND VPWR VPWR net261 sky130_fd_sc_hd__dlygate4sd3_1
XFILLER_29_30 VGND VGND VPWR VPWR sky130_fd_sc_hd__decap_6
XFILLER_29_96 VGND VGND VPWR VPWR sky130_fd_sc_hd__decap_8
XFILLER_45_62 VGND VGND VPWR VPWR sky130_fd_sc_hd__decap_4
Xhold85 Y\[24\] VGND VGND VPWR VPWR net272 sky130_fd_sc_hd__dlygate4sd3_1
Xhold96 _0207_ VGND VGND VPWR VPWR net283 sky130_fd_sc_hd__dlygate4sd3_1
X_0521_ net164 net38 net142 net287 _0323_ VGND VGND VPWR VPWR _0281_ sky130_fd_sc_hd__o221a_1
XFILLER_13_3 VGND VGND VPWR VPWR sky130_fd_sc_hd__fill_1
XFILLER_26_109 VGND VGND VPWR VPWR sky130_fd_sc_hd__decap_8
X_1004_ clknet_4_11_0_clk net339 _0047_ VGND VGND VPWR VPWR net73 sky130_fd_sc_hd__dfrtp_1
XFILLER_1_219 VGND VGND VPWR VPWR sky130_fd_sc_hd__fill_1
X_0719_ spm32.genblk1\[14\].csa.sc spm32.genblk1\[14\].csa.y VGND VGND VPWR VPWR _0408_
+ sky130_fd_sc_hd__or2_1
XFILLER_40_145 VGND VGND VPWR VPWR sky130_fd_sc_hd__fill_1
Xoutput75 net75 VGND VGND VPWR VPWR p[16] sky130_fd_sc_hd__buf_2
Xoutput86 net86 VGND VGND VPWR VPWR p[26] sky130_fd_sc_hd__buf_2
Xoutput97 net97 VGND VGND VPWR VPWR p[36] sky130_fd_sc_hd__buf_2
XFILLER_16_197 VPWR VGND VPWR VGND sky130_ef_sc_hd__decap_12
XFILLER_31_145 VPWR VGND VPWR VGND sky130_ef_sc_hd__decap_12
X_0504_ Y\[23\] net151 VGND VGND VPWR VPWR _0315_ sky130_fd_sc_hd__or2_1
XFILLER_22_101 VGND VGND VPWR VPWR sky130_fd_sc_hd__fill_2
XFILLER_22_189 VGND VGND VPWR VPWR sky130_fd_sc_hd__decap_6
XTAP_TAPCELL_ROW_9_138 VGND VPWR sky130_fd_sc_hd__tapvpwrvgnd_1
XPHY_EDGE_ROW_15_Left_61 VGND VGND VPWR VPWR sky130_fd_sc_hd__decap_3
XFILLER_9_105 VGND VGND VPWR VPWR sky130_fd_sc_hd__fill_1
XFILLER_13_156 VGND VGND VPWR VPWR sky130_fd_sc_hd__fill_1
XFILLER_26_97 VPWR VGND VPWR VGND sky130_ef_sc_hd__decap_12
XFILLER_3_57 VGND VGND VPWR VPWR sky130_fd_sc_hd__fill_1
X_0984_ net180 VGND VGND VPWR VPWR _0189_ sky130_fd_sc_hd__inv_2
XTAP_TAPCELL_ROW_14_162 VGND VPWR sky130_fd_sc_hd__tapvpwrvgnd_1
Xfanout139 net140 VGND VGND VPWR VPWR net139 sky130_fd_sc_hd__clkbuf_2
XTAP_TAPCELL_ROW_37_265 VGND VPWR sky130_fd_sc_hd__tapvpwrvgnd_1
XTAP_TAPCELL_ROW_20_187 VGND VPWR sky130_fd_sc_hd__tapvpwrvgnd_1
Xhold193 net102 VGND VGND VPWR VPWR net380 sky130_fd_sc_hd__dlygate4sd3_1
Xhold182 net115 VGND VGND VPWR VPWR net369 sky130_fd_sc_hd__dlygate4sd3_1
Xhold171 net131 VGND VGND VPWR VPWR net358 sky130_fd_sc_hd__dlygate4sd3_1
Xhold160 net78 VGND VGND VPWR VPWR net347 sky130_fd_sc_hd__dlygate4sd3_1
XPHY_EDGE_ROW_0_Left_46 VGND VGND VPWR VPWR sky130_fd_sc_hd__decap_3
XFILLER_37_41 VGND VGND VPWR VPWR sky130_fd_sc_hd__fill_2
XFILLER_5_196 VGND VGND VPWR VPWR sky130_fd_sc_hd__fill_1
XFILLER_5_141 VGND VGND VPWR VPWR sky130_fd_sc_hd__decap_8
XFILLER_24_229 VGND VGND VPWR VPWR sky130_fd_sc_hd__fill_1
X_0967_ net169 VGND VGND VPWR VPWR _0172_ sky130_fd_sc_hd__inv_2
XPHY_EDGE_ROW_42_Left_88 VGND VGND VPWR VPWR sky130_fd_sc_hd__decap_3
X_0898_ net170 VGND VGND VPWR VPWR _0103_ sky130_fd_sc_hd__inv_2
XPHY_EDGE_ROW_12_Right_12 VGND VGND VPWR VPWR sky130_fd_sc_hd__decap_3
XPHY_EDGE_ROW_21_Right_21 VGND VGND VPWR VPWR sky130_fd_sc_hd__decap_3
XPHY_EDGE_ROW_30_Right_30 VGND VGND VPWR VPWR sky130_fd_sc_hd__decap_3
XFILLER_0_69 VGND VGND VPWR VPWR sky130_fd_sc_hd__decap_4
XFILLER_14_251 VGND VGND VPWR VPWR sky130_fd_sc_hd__fill_1
X_0821_ cnt\[4\] _0470_ cnt\[5\] VGND VGND VPWR VPWR _0473_ sky130_fd_sc_hd__a21o_1
X_0752_ _0426_ _0429_ net222 VGND VGND VPWR VPWR _0030_ sky130_fd_sc_hd__o21ai_1
XTAP_TAPCELL_ROW_31_238 VGND VPWR sky130_fd_sc_hd__tapvpwrvgnd_1
XFILLER_43_3 VGND VGND VPWR VPWR sky130_fd_sc_hd__fill_1
X_0683_ spm32.genblk1\[20\].csa.sc spm32.genblk1\[20\].csa.y VGND VGND VPWR VPWR _0384_
+ sky130_fd_sc_hd__or2_1
X_1097_ clknet_4_2_0_clk _0023_ _0132_ VGND VGND VPWR VPWR spm32.genblk1\[30\].csa.sc
+ sky130_fd_sc_hd__dfrtp_1
XFILLER_20_221 VGND VGND VPWR VPWR sky130_fd_sc_hd__decap_6
XFILLER_7_258 VGND VGND VPWR VPWR sky130_fd_sc_hd__fill_2
Xclkbuf_4_11_0_clk clknet_0_clk VGND VGND VPWR VPWR clknet_4_11_0_clk sky130_fd_sc_hd__clkbuf_8
X_1020_ clknet_4_11_0_clk _0225_ _0063_ VGND VGND VPWR VPWR net91 sky130_fd_sc_hd__dfrtp_1
X_0804_ net1 net147 VGND VGND VPWR VPWR _0463_ sky130_fd_sc_hd__nand2_1
X_0735_ net3 net146 VGND VGND VPWR VPWR _0418_ sky130_fd_sc_hd__nand2_1
X_0666_ _0371_ _0372_ VGND VGND VPWR VPWR _0373_ sky130_fd_sc_hd__nand2_1
X_0597_ net366 net153 net133 net379 VGND VGND VPWR VPWR _0211_ sky130_fd_sc_hd__a22o_1
X_1149_ clknet_4_6_0_clk _0025_ _0184_ VGND VGND VPWR VPWR spm32.genblk1\[4\].csa.sc
+ sky130_fd_sc_hd__dfrtp_1
XPHY_EDGE_ROW_45_Left_91 VGND VGND VPWR VPWR sky130_fd_sc_hd__decap_3
XFILLER_20_99 VGND VGND VPWR VPWR sky130_fd_sc_hd__fill_1
Xhold97 net126 VGND VGND VPWR VPWR net284 sky130_fd_sc_hd__dlygate4sd3_1
Xhold53 _0443_ VGND VGND VPWR VPWR net240 sky130_fd_sc_hd__dlygate4sd3_1
Xhold42 spm32.genblk1\[16\].csa.sc VGND VGND VPWR VPWR net229 sky130_fd_sc_hd__dlygate4sd3_1
Xhold64 _0351_ VGND VGND VPWR VPWR net251 sky130_fd_sc_hd__dlygate4sd3_1
Xhold75 _0220_ VGND VGND VPWR VPWR net262 sky130_fd_sc_hd__dlygate4sd3_1
Xhold20 _0032_ VGND VGND VPWR VPWR net207 sky130_fd_sc_hd__dlygate4sd3_1
Xhold31 cnt\[0\] VGND VGND VPWR VPWR net218 sky130_fd_sc_hd__dlygate4sd3_1
Xhold86 Y\[20\] VGND VGND VPWR VPWR net273 sky130_fd_sc_hd__dlygate4sd3_1
XFILLER_45_41 VPWR VGND VPWR VGND sky130_ef_sc_hd__decap_12
XFILLER_28_195 VGND VGND VPWR VPWR sky130_fd_sc_hd__fill_1
XFILLER_3_272 VGND VGND VPWR VPWR sky130_fd_sc_hd__fill_1
X_0520_ Y\[15\] net149 VGND VGND VPWR VPWR _0323_ sky130_fd_sc_hd__or2_1
X_1003_ clknet_4_14_0_clk _0208_ _0046_ VGND VGND VPWR VPWR net72 sky130_fd_sc_hd__dfrtp_1
X_0718_ net194 spm32.genblk1\[14\].csa.y VGND VGND VPWR VPWR _0407_ sky130_fd_sc_hd__nand2_1
XPHY_EDGE_ROW_6_Right_6 VGND VGND VPWR VPWR sky130_fd_sc_hd__decap_3
X_0649_ _0358_ _0361_ VGND VGND VPWR VPWR spm32.genblk1\[26\].csa.hsum2 sky130_fd_sc_hd__xor2_1
XFILLER_15_55 VGND VGND VPWR VPWR sky130_fd_sc_hd__fill_1
XFILLER_31_32 VGND VGND VPWR VPWR sky130_fd_sc_hd__decap_8
Xoutput98 net98 VGND VGND VPWR VPWR p[37] sky130_fd_sc_hd__buf_2
Xoutput87 net87 VGND VGND VPWR VPWR p[27] sky130_fd_sc_hd__buf_2
Xoutput76 net76 VGND VGND VPWR VPWR p[17] sky130_fd_sc_hd__buf_2
XFILLER_31_157 VGND VGND VPWR VPWR sky130_fd_sc_hd__decap_8
X_0503_ net163 net48 net141 net330 _0314_ VGND VGND VPWR VPWR _0290_ sky130_fd_sc_hd__o221a_1
XTAP_TAPCELL_ROW_9_139 VGND VPWR sky130_fd_sc_hd__tapvpwrvgnd_1
XFILLER_12_190 VGND VGND VPWR VPWR sky130_fd_sc_hd__decap_6
XTAP_TAPCELL_ROW_14_163 VGND VPWR sky130_fd_sc_hd__tapvpwrvgnd_1
X_0983_ net186 VGND VGND VPWR VPWR _0188_ sky130_fd_sc_hd__inv_2
XFILLER_8_194 VGND VGND VPWR VPWR sky130_fd_sc_hd__fill_2
XFILLER_27_205 VPWR VGND VPWR VGND sky130_ef_sc_hd__decap_12
XTAP_TAPCELL_ROW_37_266 VGND VPWR sky130_fd_sc_hd__tapvpwrvgnd_1
XFILLER_6_109 VGND VGND VPWR VPWR sky130_fd_sc_hd__decap_6
XTAP_TAPCELL_ROW_20_188 VGND VPWR sky130_fd_sc_hd__tapvpwrvgnd_1
Xhold172 net128 VGND VGND VPWR VPWR net359 sky130_fd_sc_hd__dlygate4sd3_1
Xhold161 net125 VGND VGND VPWR VPWR net348 sky130_fd_sc_hd__dlygate4sd3_1
Xhold194 _0234_ VGND VGND VPWR VPWR net381 sky130_fd_sc_hd__dlygate4sd3_1
Xhold183 net110 VGND VGND VPWR VPWR net370 sky130_fd_sc_hd__dlygate4sd3_1
XTAP_TAPCELL_ROW_5_120 VGND VPWR sky130_fd_sc_hd__tapvpwrvgnd_1
XFILLER_5_6 VPWR VGND VPWR VGND sky130_ef_sc_hd__decap_12
Xhold150 _0240_ VGND VGND VPWR VPWR net337 sky130_fd_sc_hd__dlygate4sd3_1
XTAP_TAPCELL_ROW_28_222 VGND VPWR sky130_fd_sc_hd__tapvpwrvgnd_1
XFILLER_38_6 VGND VGND VPWR VPWR sky130_fd_sc_hd__fill_2
X_0897_ net170 VGND VGND VPWR VPWR _0102_ sky130_fd_sc_hd__inv_2
X_0966_ net173 VGND VGND VPWR VPWR _0171_ sky130_fd_sc_hd__inv_2
XFILLER_4_90 VGND VGND VPWR VPWR sky130_fd_sc_hd__fill_2
XFILLER_3_3 VGND VGND VPWR VPWR sky130_fd_sc_hd__decap_8
XFILLER_23_99 VPWR VGND VPWR VGND sky130_ef_sc_hd__decap_12
XFILLER_0_15 VPWR VGND VPWR VGND sky130_ef_sc_hd__decap_12
X_0820_ net383 _0470_ _0472_ VGND VGND VPWR VPWR _0263_ sky130_fd_sc_hd__o21a_1
X_0751_ _0426_ _0429_ VGND VGND VPWR VPWR spm32.genblk1\[9\].csa.hsum2 sky130_fd_sc_hd__xor2_1
XTAP_TAPCELL_ROW_31_239 VGND VPWR sky130_fd_sc_hd__tapvpwrvgnd_1
XFILLER_36_3 VGND VGND VPWR VPWR sky130_fd_sc_hd__fill_1
X_0682_ net256 spm32.genblk1\[20\].csa.y VGND VGND VPWR VPWR _0383_ sky130_fd_sc_hd__nand2_1
X_1096_ clknet_4_2_0_clk spm32.genblk1\[30\].csa.hsum2 _0131_ VGND VGND VPWR VPWR
+ spm32.genblk1\[29\].csa.y sky130_fd_sc_hd__dfrtp_1
X_0949_ net175 VGND VGND VPWR VPWR _0154_ sky130_fd_sc_hd__inv_2
XFILLER_34_32 VGND VGND VPWR VPWR sky130_fd_sc_hd__fill_2
X_0665_ spm32.genblk1\[23\].csa.sc spm32.genblk1\[23\].csa.y VGND VGND VPWR VPWR _0372_
+ sky130_fd_sc_hd__or2_1
X_0803_ _0032_ _0462_ VGND VGND VPWR VPWR _0031_ sky130_fd_sc_hd__and2_1
X_0734_ _0414_ _0417_ net197 VGND VGND VPWR VPWR _0003_ sky130_fd_sc_hd__o21ai_1
X_0596_ net76 net152 net132 net334 VGND VGND VPWR VPWR _0212_ sky130_fd_sc_hd__a22o_1
XFILLER_29_119 VGND VGND VPWR VPWR sky130_fd_sc_hd__fill_1
X_1079_ clknet_4_5_0_clk _0284_ _0114_ VGND VGND VPWR VPWR Y\[17\] sky130_fd_sc_hd__dfrtp_1
X_1148_ clknet_4_6_0_clk spm32.genblk1\[4\].csa.hsum2 _0183_ VGND VGND VPWR VPWR spm32.genblk1\[3\].csa.y
+ sky130_fd_sc_hd__dfrtp_1
Xhold98 _0256_ VGND VGND VPWR VPWR net285 sky130_fd_sc_hd__dlygate4sd3_1
Xhold32 spm32.genblk1\[25\].csa.sc VGND VGND VPWR VPWR net219 sky130_fd_sc_hd__dlygate4sd3_1
Xhold65 spm32.genblk1\[24\].csa.sc VGND VGND VPWR VPWR net252 sky130_fd_sc_hd__dlygate4sd3_1
Xhold43 _0399_ VGND VGND VPWR VPWR net230 sky130_fd_sc_hd__dlygate4sd3_1
Xhold54 spm32.genblk1\[15\].csa.sc VGND VGND VPWR VPWR net241 sky130_fd_sc_hd__dlygate4sd3_1
Xhold21 spm32.genblk1\[30\].csa.y VGND VGND VPWR VPWR net208 sky130_fd_sc_hd__dlygate4sd3_1
Xhold10 _0415_ VGND VGND VPWR VPWR net197 sky130_fd_sc_hd__dlygate4sd3_1
XFILLER_28_141 VPWR VGND VPWR VGND sky130_ef_sc_hd__decap_12
Xhold87 Y\[19\] VGND VGND VPWR VPWR net274 sky130_fd_sc_hd__dlygate4sd3_1
Xhold76 Y\[16\] VGND VGND VPWR VPWR net263 sky130_fd_sc_hd__dlygate4sd3_1
XFILLER_45_53 VGND VGND VPWR VPWR sky130_fd_sc_hd__decap_3
XFILLER_43_166 VGND VGND VPWR VPWR sky130_fd_sc_hd__fill_2
XFILLER_43_111 VGND VGND VPWR VPWR sky130_fd_sc_hd__fill_1
X_1002_ clknet_4_14_0_clk net283 _0045_ VGND VGND VPWR VPWR net71 sky130_fd_sc_hd__dfrtp_1
X_0648_ _0359_ _0360_ VGND VGND VPWR VPWR _0361_ sky130_fd_sc_hd__nand2_1
X_0717_ net6 net145 VGND VGND VPWR VPWR _0406_ sky130_fd_sc_hd__nand2_1
X_0579_ net279 net154 net134 net324 VGND VGND VPWR VPWR _0229_ sky130_fd_sc_hd__a22o_1
XFILLER_15_34 VGND VGND VPWR VPWR sky130_fd_sc_hd__decap_3
Xclkbuf_4_10_0_clk clknet_0_clk VGND VGND VPWR VPWR clknet_4_10_0_clk sky130_fd_sc_hd__clkbuf_8
XFILLER_31_55 VGND VGND VPWR VPWR sky130_fd_sc_hd__fill_1
Xoutput99 net99 VGND VGND VPWR VPWR p[38] sky130_fd_sc_hd__buf_2
Xoutput88 net88 VGND VGND VPWR VPWR p[28] sky130_fd_sc_hd__buf_2
Xoutput77 net77 VGND VGND VPWR VPWR p[18] sky130_fd_sc_hd__buf_2
XFILLER_31_169 VPWR VGND VPWR VGND sky130_ef_sc_hd__decap_12
X_0502_ Y\[24\] net148 VGND VGND VPWR VPWR _0314_ sky130_fd_sc_hd__or2_1
XFILLER_39_225 VGND VGND VPWR VPWR sky130_fd_sc_hd__fill_1
XFILLER_42_43 VGND VGND VPWR VPWR sky130_fd_sc_hd__fill_2
X_0982_ net181 VGND VGND VPWR VPWR _0187_ sky130_fd_sc_hd__inv_2
XFILLER_27_217 VGND VGND VPWR VPWR sky130_fd_sc_hd__fill_2
XFILLER_10_106 VGND VGND VPWR VPWR sky130_fd_sc_hd__fill_2
XFILLER_10_139 VGND VGND VPWR VPWR sky130_fd_sc_hd__fill_1
Xhold140 net118 VGND VGND VPWR VPWR net327 sky130_fd_sc_hd__dlygate4sd3_1
Xhold162 net85 VGND VGND VPWR VPWR net349 sky130_fd_sc_hd__dlygate4sd3_1
Xhold151 net74 VGND VGND VPWR VPWR net338 sky130_fd_sc_hd__dlygate4sd3_1
XTAP_TAPCELL_ROW_20_189 VGND VPWR sky130_fd_sc_hd__tapvpwrvgnd_1
Xhold195 net100 VGND VGND VPWR VPWR net382 sky130_fd_sc_hd__dlygate4sd3_1
Xhold184 _0242_ VGND VGND VPWR VPWR net371 sky130_fd_sc_hd__dlygate4sd3_1
XTAP_TAPCELL_ROW_5_121 VGND VPWR sky130_fd_sc_hd__tapvpwrvgnd_1
Xhold173 net92 VGND VGND VPWR VPWR net360 sky130_fd_sc_hd__dlygate4sd3_1
XTAP_TAPCELL_ROW_28_223 VGND VPWR sky130_fd_sc_hd__tapvpwrvgnd_1
XFILLER_24_209 VPWR VGND VPWR VGND sky130_ef_sc_hd__decap_12
X_0965_ net169 VGND VGND VPWR VPWR _0170_ sky130_fd_sc_hd__inv_2
X_0896_ net171 VGND VGND VPWR VPWR _0101_ sky130_fd_sc_hd__inv_2
XFILLER_23_231 VGND VGND VPWR VPWR sky130_fd_sc_hd__fill_1
XFILLER_0_27 VGND VGND VPWR VPWR sky130_fd_sc_hd__fill_1
XFILLER_0_38 VPWR VGND VPWR VGND sky130_ef_sc_hd__decap_12
X_0681_ net13 net145 VGND VGND VPWR VPWR _0382_ sky130_fd_sc_hd__nand2_1
X_0750_ _0427_ _0428_ VGND VGND VPWR VPWR _0429_ sky130_fd_sc_hd__nand2_1
XFILLER_1_190 VGND VGND VPWR VPWR sky130_fd_sc_hd__decap_3
XTAP_TAPCELL_ROW_0_92 VGND VPWR sky130_fd_sc_hd__tapvpwrvgnd_1
X_1095_ clknet_4_0_0_clk nstate\[1\] _0130_ VGND VGND VPWR VPWR state\[1\] sky130_fd_sc_hd__dfrtp_1
X_0948_ net175 VGND VGND VPWR VPWR _0153_ sky130_fd_sc_hd__inv_2
X_0879_ net183 VGND VGND VPWR VPWR _0084_ sky130_fd_sc_hd__inv_2
XFILLER_18_56 VGND VGND VPWR VPWR sky130_fd_sc_hd__decap_4
X_0802_ net25 spm32.tcmp.z net146 VGND VGND VPWR VPWR _0462_ sky130_fd_sc_hd__nand3_1
X_0664_ net231 spm32.genblk1\[23\].csa.y VGND VGND VPWR VPWR _0371_ sky130_fd_sc_hd__nand2_1
X_0733_ _0414_ _0417_ VGND VGND VPWR VPWR spm32.genblk1\[12\].csa.hsum2 sky130_fd_sc_hd__xor2_1
X_0595_ net334 net152 net132 net347 VGND VGND VPWR VPWR _0213_ sky130_fd_sc_hd__a22o_1
X_1147_ clknet_4_7_0_clk _0026_ _0182_ VGND VGND VPWR VPWR spm32.genblk1\[5\].csa.sc
+ sky130_fd_sc_hd__dfrtp_1
X_1078_ clknet_4_4_0_clk _0283_ _0113_ VGND VGND VPWR VPWR Y\[16\] sky130_fd_sc_hd__dfrtp_1
Xhold22 _0343_ VGND VGND VPWR VPWR net209 sky130_fd_sc_hd__dlygate4sd3_1
Xhold11 spm32.genblk1\[10\].csa.sc VGND VGND VPWR VPWR net198 sky130_fd_sc_hd__dlygate4sd3_1
XFILLER_43_101 VGND VGND VPWR VPWR sky130_fd_sc_hd__fill_2
Xhold77 Y\[10\] VGND VGND VPWR VPWR net264 sky130_fd_sc_hd__dlygate4sd3_1
Xhold88 net121 VGND VGND VPWR VPWR net275 sky130_fd_sc_hd__dlygate4sd3_1
Xhold99 Y\[8\] VGND VGND VPWR VPWR net286 sky130_fd_sc_hd__dlygate4sd3_1
Xhold66 _0367_ VGND VGND VPWR VPWR net253 sky130_fd_sc_hd__dlygate4sd3_1
Xhold33 _0363_ VGND VGND VPWR VPWR net220 sky130_fd_sc_hd__dlygate4sd3_1
Xhold44 spm32.genblk1\[23\].csa.sc VGND VGND VPWR VPWR net231 sky130_fd_sc_hd__dlygate4sd3_1
Xhold55 _0403_ VGND VGND VPWR VPWR net242 sky130_fd_sc_hd__dlygate4sd3_1
XFILLER_28_153 VPWR VGND VPWR VGND sky130_ef_sc_hd__decap_12
XFILLER_28_197 VPWR VGND VPWR VGND sky130_ef_sc_hd__decap_12
XFILLER_6_26 VGND VGND VPWR VPWR sky130_fd_sc_hd__fill_2
XFILLER_34_167 VGND VGND VPWR VPWR sky130_fd_sc_hd__fill_2
XFILLER_34_134 VGND VGND VPWR VPWR sky130_fd_sc_hd__fill_1
X_1001_ clknet_4_14_0_clk _0206_ _0044_ VGND VGND VPWR VPWR net70 sky130_fd_sc_hd__dfrtp_1
X_0647_ spm32.genblk1\[26\].csa.sc spm32.genblk1\[26\].csa.y VGND VGND VPWR VPWR _0360_
+ sky130_fd_sc_hd__or2_1
X_0716_ _0402_ _0405_ net242 VGND VGND VPWR VPWR _0006_ sky130_fd_sc_hd__o21ai_1
X_0578_ net96 net155 net135 net311 VGND VGND VPWR VPWR _0230_ sky130_fd_sc_hd__a22o_1
XFILLER_25_167 VGND VGND VPWR VPWR sky130_fd_sc_hd__fill_1
Xoutput67 net67 VGND VGND VPWR VPWR done sky130_fd_sc_hd__buf_2
Xoutput78 net78 VGND VGND VPWR VPWR p[19] sky130_fd_sc_hd__buf_2
Xoutput89 net89 VGND VGND VPWR VPWR p[29] sky130_fd_sc_hd__buf_2
XFILLER_31_104 VGND VGND VPWR VPWR sky130_fd_sc_hd__decap_8
X_0501_ net162 net49 net141 net272 _0313_ VGND VGND VPWR VPWR _0291_ sky130_fd_sc_hd__o221a_1
XTAP_TAPCELL_ROW_17_173 VGND VPWR sky130_fd_sc_hd__tapvpwrvgnd_1
XFILLER_26_45 VPWR VGND VPWR VGND sky130_ef_sc_hd__decap_12
XFILLER_9_119 VGND VGND VPWR VPWR sky130_fd_sc_hd__fill_1
XFILLER_13_126 VPWR VGND VPWR VGND sky130_ef_sc_hd__decap_12
XFILLER_13_148 VGND VGND VPWR VPWR sky130_fd_sc_hd__decap_8
XFILLER_21_181 VPWR VGND VPWR VGND sky130_ef_sc_hd__decap_12
XFILLER_3_38 VGND VGND VPWR VPWR sky130_fd_sc_hd__fill_1
X_0981_ net180 VGND VGND VPWR VPWR _0186_ sky130_fd_sc_hd__inv_2
XPHY_EDGE_ROW_19_Left_65 VGND VGND VPWR VPWR sky130_fd_sc_hd__decap_3
XFILLER_27_229 VGND VGND VPWR VPWR sky130_fd_sc_hd__fill_1
Xhold163 Y\[6\] VGND VGND VPWR VPWR net350 sky130_fd_sc_hd__dlygate4sd3_1
Xhold174 net87 VGND VGND VPWR VPWR net361 sky130_fd_sc_hd__dlygate4sd3_1
Xhold141 net88 VGND VGND VPWR VPWR net328 sky130_fd_sc_hd__dlygate4sd3_1
Xhold130 cnt\[1\] VGND VGND VPWR VPWR net317 sky130_fd_sc_hd__dlygate4sd3_1
Xhold152 _0209_ VGND VGND VPWR VPWR net339 sky130_fd_sc_hd__dlygate4sd3_1
Xhold185 net109 VGND VGND VPWR VPWR net372 sky130_fd_sc_hd__dlygate4sd3_1
XFILLER_37_55 VGND VGND VPWR VPWR sky130_fd_sc_hd__fill_1
XTAP_TAPCELL_ROW_5_122 VGND VPWR sky130_fd_sc_hd__tapvpwrvgnd_1
Xhold196 cnt\[4\] VGND VGND VPWR VPWR net383 sky130_fd_sc_hd__dlygate4sd3_1
XFILLER_37_99 VGND VGND VPWR VPWR sky130_fd_sc_hd__fill_1
XTAP_TAPCELL_ROW_28_224 VGND VPWR sky130_fd_sc_hd__tapvpwrvgnd_1
XTAP_TAPCELL_ROW_11_146 VGND VPWR sky130_fd_sc_hd__tapvpwrvgnd_1
XFILLER_5_177 VGND VGND VPWR VPWR sky130_fd_sc_hd__fill_1
XTAP_TAPCELL_ROW_34_249 VGND VPWR sky130_fd_sc_hd__tapvpwrvgnd_1
X_0964_ net169 VGND VGND VPWR VPWR _0169_ sky130_fd_sc_hd__inv_2
X_0895_ net171 VGND VGND VPWR VPWR _0100_ sky130_fd_sc_hd__inv_2
XFILLER_23_35 VGND VGND VPWR VPWR sky130_fd_sc_hd__fill_1
XFILLER_23_79 VGND VGND VPWR VPWR sky130_fd_sc_hd__decap_3
X_0680_ _0378_ _0381_ net255 VGND VGND VPWR VPWR _0013_ sky130_fd_sc_hd__o21ai_1
XTAP_TAPCELL_ROW_0_93 VGND VPWR sky130_fd_sc_hd__tapvpwrvgnd_1
X_1094_ clknet_4_0_0_clk nstate\[0\] _0129_ VGND VGND VPWR VPWR state\[0\] sky130_fd_sc_hd__dfrtp_1
X_0947_ net175 VGND VGND VPWR VPWR _0152_ sky130_fd_sc_hd__inv_2
X_0878_ net184 VGND VGND VPWR VPWR _0083_ sky130_fd_sc_hd__inv_2
Xclkload0 clknet_4_0_0_clk VGND VGND VPWR VPWR clkload0/X sky130_fd_sc_hd__clkbuf_8
X_0801_ Y\[0\] net25 net161 net206 VGND VGND VPWR VPWR _0032_ sky130_fd_sc_hd__a31o_1
X_0594_ net78 net152 net132 net309 VGND VGND VPWR VPWR _0214_ sky130_fd_sc_hd__a22o_1
X_0663_ net16 net146 VGND VGND VPWR VPWR _0370_ sky130_fd_sc_hd__nand2_1
X_0732_ _0415_ _0416_ VGND VGND VPWR VPWR _0417_ sky130_fd_sc_hd__nand2_1
X_1146_ clknet_4_7_0_clk spm32.genblk1\[5\].csa.hsum2 _0181_ VGND VGND VPWR VPWR spm32.genblk1\[4\].csa.y
+ sky130_fd_sc_hd__dfrtp_1
XFILLER_37_187 VGND VGND VPWR VPWR sky130_fd_sc_hd__fill_1
X_1077_ clknet_4_4_0_clk _0282_ _0112_ VGND VGND VPWR VPWR Y\[15\] sky130_fd_sc_hd__dfrtp_1
Xhold23 spm32.genblk1\[18\].csa.sc VGND VGND VPWR VPWR net210 sky130_fd_sc_hd__dlygate4sd3_1
Xhold56 spm32.genblk1\[22\].csa.sc VGND VGND VPWR VPWR net243 sky130_fd_sc_hd__dlygate4sd3_1
Xhold45 _0371_ VGND VGND VPWR VPWR net232 sky130_fd_sc_hd__dlygate4sd3_1
Xhold12 _0423_ VGND VGND VPWR VPWR net199 sky130_fd_sc_hd__dlygate4sd3_1
Xhold34 spm32.genblk1\[9\].csa.sc VGND VGND VPWR VPWR net221 sky130_fd_sc_hd__dlygate4sd3_1
Xhold89 _0252_ VGND VGND VPWR VPWR net276 sky130_fd_sc_hd__dlygate4sd3_1
XFILLER_43_113 VGND VGND VPWR VPWR sky130_fd_sc_hd__fill_1
Xhold67 spm32.genblk1\[21\].csa.sc VGND VGND VPWR VPWR net254 sky130_fd_sc_hd__dlygate4sd3_1
Xhold78 Y\[28\] VGND VGND VPWR VPWR net265 sky130_fd_sc_hd__dlygate4sd3_1
XFILLER_28_165 VPWR VGND VPWR VGND sky130_ef_sc_hd__decap_12
XPHY_EDGE_ROW_7_Left_53 VGND VGND VPWR VPWR sky130_fd_sc_hd__decap_3
XFILLER_3_220 VGND VGND VPWR VPWR sky130_fd_sc_hd__fill_1
XFILLER_10_91 VGND VGND VPWR VPWR sky130_fd_sc_hd__fill_2
X_1000_ clknet_4_15_0_clk _0205_ _0043_ VGND VGND VPWR VPWR net69 sky130_fd_sc_hd__dfrtp_1
XFILLER_19_121 VPWR VGND VPWR VGND sky130_ef_sc_hd__decap_12
XFILLER_19_165 VGND VGND VPWR VPWR sky130_fd_sc_hd__decap_3